/batch
/config,noeldb,1     ! force off writing results to database
*get,_wallstrt,active,,time,wall
! ANSYS input file written by Workbench version 2024 R1
! File used for geometry attach: C:\Users\saroj\Desktop\Vibration\ANSYS\r2\file 2_files\dp0\SYS\DM\SYS.agdb
/title,file 2--Modal (A5)
! ****** Begin Custom Load Command Snippet ******
/COM, ACT Extensions:
/COM,     LSDYNA, 2024.1
/COM,     5f463412-bd3e-484b-87e7-cbc0a665e474, wbex
/COM,/COM,     ANSYSMotion, 2024.1
/COM,     20180725-3f81-49eb-9f31-41364844c769, wbex
/COM,/COM,     AqwaLoadMapping, 2024.1
/COM,     4a217913-2035-4362-96b3-10d129d8ee46, wbex
/COM,
! ****** End   Custom Load Command Snippet ******
*DIM,_wb_ProjectScratch_dir,string,248
_wb_ProjectScratch_dir(1) = 'C:\Users\saroj\Desktop\Vibration\ANSYS\r2\_ProjectScratch\Scr0D28\'
*DIM,_wb_SolverFiles_dir,string,248
_wb_SolverFiles_dir(1) = 'C:\Users\saroj\Desktop\Vibration\ANSYS\r2\file 2_files\dp0\SYS\MECH\'
*DIM,_wb_userfiles_dir,string,248
_wb_userfiles_dir(1) = 'C:\Users\saroj\Desktop\Vibration\ANSYS\r2\file 2_files\user_files\'
/com,--- Data in consistent MKS units. See Solving Units in the help system for more information.
/units,MKS
/nopr
/wb,file,start              !  signify a WB generated input file
/prep7
! Turn off shape checking because checks already performed inside WB mesher.
! See help system for more information.
SHPP,OFF,,NOWARN
/nolist
etcon,set             ! allow ANSYS to choose best KEYOP's for 180x elements, resets any applicable keyopt to MAPDL defaults
/com,*********** Nodes for the whole assembly ***********
nblock,3,,8026
(1i9,3e20.9e3)
        1     7.012451526E-03     7.719032763E-04    -1.451612903E-01
        2     7.012451526E-03     7.719032763E-04    -1.403225806E-01
        3     7.012451526E-03     7.719032763E-04    -1.354838710E-01
        4     7.012451526E-03     7.719032763E-04    -1.306451613E-01
        5     7.012451526E-03     7.719032763E-04    -1.258064516E-01
        6     7.012451526E-03     7.719032763E-04    -1.209677419E-01
        7     7.012451526E-03     7.719032763E-04    -1.161290323E-01
        8     7.012451526E-03     7.719032763E-04    -1.112903226E-01
        9     7.012451526E-03     7.719032763E-04    -1.064516129E-01
       10     7.012451526E-03     7.719032763E-04    -1.016129032E-01
       11     7.012451526E-03     7.719032763E-04    -9.677419355E-02
       12     7.012451526E-03     7.719032763E-04    -9.193548387E-02
       13     7.012451526E-03     7.719032763E-04    -8.709677419E-02
       14     7.012451526E-03     7.719032763E-04    -8.225806452E-02
       15     7.012451526E-03     7.719032763E-04    -7.741935484E-02
       16     7.012451526E-03     7.719032763E-04    -7.258064516E-02
       17     7.012451526E-03     7.719032763E-04    -6.774193548E-02
       18     7.012451526E-03     7.719032763E-04    -6.290322581E-02
       19     7.012451526E-03     7.719032763E-04    -5.806451613E-02
       20     7.012451526E-03     7.719032763E-04    -5.322580645E-02
! ... 7278 like lines cut
/wb,elem,start            !  set before creation of elements
/com,*********** Elements for Body 1 "Solid" ***********
et,1,186
keyo,1,2,1          ! set full integration on SOLID186
eblock,19,solid,,1302
(19i9)
        1        1        1        1        0        0        0        0       20        0        1        1       31     1926     1925      651      650     1998     1997
     2018     2171     7177     2022     4307     4308     7279     4310     2020     2170     7180     7178
        1        1        1        1        0        0        0        0       20        0        2        1     1925     1926       31        2     1884     1885       32
     2022     7177     2171     2018     2027     7085     2174     2024     2017     7086     7088     2168
        1        1        1        1        0        0        0        0       20        0        3        2     1884     1885       32        3     1843     1844       33
     2027     7085     2174     2024     2032     6993     2177     2029     2023     6994     6996     2172
        1        1        1        1        0        0        0        0       20        0        4        3     1843     1844       33        4     1802     1803       34
     2032     6993     2177     2029     2037     6901     2180     2034     2028     6902     6904     2175
        1        1        1        1        0        0        0        0       20        0        5        4     1802     1803       34        5     1761     1762       35
     2037     6901     2180     2034     2042     6809     2183     2039     2033     6810     6812     2178
        1        1        1        1        0        0        0        0       20        0        6        5     1761     1762       35        6     1720     1721       36
     2042     6809     2183     2039     2047     6717     2186     2044     2038     6718     6720     2181
        1        1        1        1        0        0        0        0       20        0        7        6     1720     1721       36        7     1679     1680       37
     2047     6717     2186     2044     2052     6625     2189     2049     2043     6626     6628     2184
        1        1        1        1        0        0        0        0       20        0        8        7     1679     1680       37        8     1638     1639       38
     2052     6625     2189     2049     2057     6533     2192     2054     2048     6534     6536     2187
        1        1        1        1        0        0        0        0       20        0        9        8     1638     1639       38        9     1597     1598       39
     2057     6533     2192     2054     2062     6441     2195     2059     2053     6442     6444     2190
        1        1        1        1        0        0        0        0       20        0       10        9     1597     1598       39       10     1556     1557       40
     2062     6441     2195     2059     2067     6349     2198     2064     2058     6350     6352     2193
! ... 2585 like lines cut
!Material Id = {F83B5F90-9B7D-4D9A-9509-54A37E7C0B11}
/wb,elem,end               !  done creating elements
/com,*********** Send User Defined Coordinate System(s) ***********
csys,0
toffst,273.15,  ! Temperature offset from absolute zero
/com,*********** Set Reference Temperature ***********
tref,22.
/wb,mat,start              !  starting to send materials
/com,*********** Send Materials ***********
Temperature = 'TEMP' ! Temperature
MP,DENS,1,7850,	! kg m^-3
MP,ALPX,1,1.2e-05,	! C^-1
MP,C,1,434,	! J kg^-1 C^-1
MP,KXX,1,60.5,	! W m^-1 C^-1
MP,RSVX,1,1.7e-07,	! kg m^3 A^-2 s^-3
MP,EX,1,200000000000,	! Pa
MP,NUXY,1,0.3,
MP,MURX,1,10000,
MP,UVID,1,3f077f7d-0932-4e3f-a107-aad208b8046d
MP,UMID,1,59002a79-71c2-428e-906b-55d7dbee100e

/wb,mat,end                !  done sending materials
!************************* Model Summary ********************
!Solid,	Structural Steel,	matid,	1
!************************* End Model Summary ********************
! get the diagonal of the bounding box. Needed later for other things
*get,_xmin,node,,mnloc,x
*get,_ymin,node,,mnloc,y
*get,_zmin,node,,mnloc,z
*get,_xmax,node,,mxloc,x
*get,_ymax,node,,mxloc,y
*get,_zmax,node,,mxloc,z
_ASMDIAG=(_xmax-_xmin)*(_xmax-_xmin)+(_ymax-_ymin)*(_ymax-_ymin)+(_zmax-_zmin)*(_zmax-_zmin)
_ASMDIAG=SQRT(_ASMDIAG)
/wb,contact,start          !  starting to send contact
/wb,contact,end            !  done creating contacts
/golist
/wb,load,start             !  starting to send loads
/com,*********** Fixed Supports ***********
CMBLOCK,_FIXEDSU,NODE,      167
(8i10)
       652       653       654       655       656       657       658       659
       660       661       662       663       664       665       666       667
       668       669       670       671       672       673       674       675
       676       677       678       679       680       681       682       683
       684       685       686       687       688       689       690       691
       692       693       694       695       696       697       698       699
       700       701       702       703       704       705       706       707
       708       709       710       711       712       713       714      4311
      4312      4313      4314      4315      4316      4317      4318      4319
      4320      4321      4322      4323      4324      4325      4326      4327
      4328      4329      4330      4331      4332      4333      4334      4335
      4336      4337      4338      4339      4340      4341      4342      4343
      4344      4345      4346      4347      4348      4349      4350      4351
      4352      4353      4354      4355      4356      4357      4358      4359
      4360      4361      4362      4363      4364      4365      4366      4368
      4369      4371      4372      4374      4375      4377      4378      4380
      4381      4383      4384      4386      4387      4389      4390      4392
      4394      4396      4398      4400      4402      4404      4406      4408
      4410      4412      4414      4416      4418      4420      4422      4424
      4426      4428      4430      4432      4434      4436      4438      4440
      4442      4444      4446      4448      4450      4452      4454
cmsel,s,_FIXEDSU
d,all,all
nsel,all
/gst,on,on
fini
*get,_numnode,node,0,count
*get,_numelem,elem,0,count
*get, _MAXELEMNUM, elem, 0, NUM, MAX
*get, _MAXNODENUM, node, 0, NUM, MAX
*get, _MAXELEMTYPE, etyp, 0, NUM, MAX
*get, _MAXREALCONST, rcon, 0, NUM, MAX
/go
/wb,load,end               !  done creating loads
/com,--- Number of total nodes = %_numnode%
/com,--- Number of contact elements = 0
/com,--- Number of spring elements = 0
/com,--- Number of bearing elements = 0
/com,--- Number of solid elements = 1302
/com,--- Number of condensed parts = 0
/com,--- Number of total elements = %_numelem%
*get,_wallbsol,active,,time,wall
/solu
antype,2                   ! modal analysis
_thickRatio=  1     ! Ratio of thick parts in the model
modopt,lanb,10
outres,erase
outres,all,none
outres,nsol,all
mxpand                    ! default expand in case of complex solution
dmpopt,esav,no
dmpopt,emat,no
dmpopt,full,no
! *********** WB SOLVE COMMAND ***********
! check interactive state
*get,ANSINTER_,active,,int
*if,ANSINTER_,ne,0,then
/eof
*endif
solve
/com *************** Write FE CONNECTORS ********* 
CEWRITE,file,ce,,INTE
*get,_nmodalsolproc,active,0,numcpu
fini
/nopr
*get,_numnode,node,0,count
*get,_numelem,elem,0,count
*get, _MAXELEMNUM, elem, 0, NUM, MAX
*get, _MAXNODENUM, node, 0, NUM, MAX,,,INTERNAL
*get, _MAXELEMTYPE, etyp, 0, NUM, MAX
*get, _MAXREALCONST, rcon, 0, NUM, MAX
*get,_NSOLTHREADS,active,0,ntfs
*get,_NSOLPROCESSES,active,0,npfs
/gopr
*get,_wallasol,active,,time,wall
/post1
/nopr
*dim,_direction,CHAR,6,1
_direction(1) = 'X'
_direction(2) = 'Y'
_direction(3) = 'Z'
_direction(4) = 'ROTX'
_direction(5) = 'ROTY'
_direction(6) = 'ROTZ'
*get,_lastLS,active,0,set,LSTP
*get,_beginset,active,0,set,nset,first,_lastLS
*get,_endset,active,0,set,nset,last,_lastLS
_nummodes = 0
*if,_endset,gt,0,then
_nummodes = _endset - _beginset + 1
*endif
*do,i_mode,1,_nummodes
   *do,j_component,1,6
			*get,PFACT_%i_mode%_%j_component%,MODE,%i_mode%,PFACT,,DIREC,_direction(%j_component%)
   *enddo
*enddo
*dim,_tmdirection,CHAR,6,1
_tmdirection(1) = 'X'
_tmdirection(2) = 'Y'
_tmdirection(3) = 'Z'
_tmdirection(4) = 'X'
_tmdirection(5) = 'Y'
_tmdirection(6) = 'Z'
*do,j_component,1,6
    *if,j_component,gt,3,then
        *get,TOTALMASS_%j_component%,ELEM,0,IOR,_tmdirection(%j_component%)
    *else
        *get,TOTALMASS_%j_component%,ELEM,0,MTOT,_tmdirection(%j_component%)
    *endif
*enddo
/gopr
xmlo,ENCODING,ISO-8859-1
xmlo,parm
/xml,parm,xml
fini
/gopr
*get,_walldone,active,,time,wall
_preptime=(_wallbsol-_wallstrt)*3600
_solvtime=(_wallasol-_wallbsol)*3600
_posttime=(_walldone-_wallasol)*3600
_totaltim=(_walldone-_wallstrt)*3600
*get,_dlbratio,active,0,solu,dlbr
*get,_combtime,active,0,solu,comb
*get,_ssmode,active,0,solu,ssmm
*get,_ndofs,active,0,solu,ndof
/fclean				!clean distributed files
/com,--- Total number of nodes = %_numnode%
/com,--- Total number of elements = %_numelem%
/com,--- Element load balance ratio = %_dlbratio%
/com,--- Time to combine distributed files = %_combtime%
/com,--- Sparse memory mode = %_ssmode%
/com,--- Number of DOF = %_ndofs%
/wb,file,end               ! done with WB generated input
